4e3g_lig
  PyMOL2.1          3D                             0

  9  9  0  0  0  0  0  0  0  0999 V2000
   17.3410    1.4040   15.6300 O   0  0  0  0  0  0  0  0  0  0  0  0
   16.4400    2.1870   15.2350 C   0  0  0  0  0  0  0  0  0  0  0  0
   15.2530    1.8470   15.5410 O   0  0  0  0  0  0  0  0  0  0  0  0
   16.7060    3.4620   14.6760 C   0  0  0  0  0  0  0  0  0  0  0  0
   18.0480    3.9210   14.6600 C   0  0  0  0  0  0  0  0  0  0  0  0
   18.4420    5.2100   14.1920 C   0  0  0  0  0  0  0  0  0  0  0  0
   17.3440    5.9500   13.6530 C   0  0  0  0  0  0  0  0  0  0  0  0
   16.0150    5.4960   13.6580 C   0  0  0  0  0  0  0  0  0  0  0  0
   15.6810    4.2780   14.2290 C   0  0  0  0  0  0  0  0  0  0  0  0
  1  2  2  0  0  0  0
  2  3  1  0  0  0  0
  2  4  1  0  0  0  0
  4  5  2  0  0  0  0
  5  6  1  0  0  0  0
  6  7  2  0  0  0  0
  7  8  1  0  0  0  0
  4  9  1  0  0  0  0
  8  9  2  0  0  0  0
M  END
$$$$
